CM Helix with full disc reflector (radial wires) at 2.4 GHz
CE
GW	200	5	0	0	0.0001	0.03875	0	0.0001	0.001
GW	201	5	0	0	0.0001	0.03554	0.01608	0.0001	0.001
GW	202	5	0	0	0.0001	0.02739	0.02739	0.0001	0.001
GW	203	5	0	0	0.0001	0.01608	0.03554	0.0001	0.001
GW	204	5	0	0	0.0001	0	0.03875	0.0001	0.001
GW	205	5	0	0	0.0001	-0.01608	0.03554	0.0001	0.001
GW	206	5	0	0	0.0001	-0.02739	0.02739	0.0001	0.001
GW	207	5	0	0	0.0001	-0.03554	0.01608	0.0001	0.001
GW	208	5	0	0	0.0001	-0.03875	0	0.0001	0.001
GW	209	5	0	0	0.0001	-0.03554	-0.01608	0.0001	0.001
GW	210	5	0	0	0.0001	-0.02739	-0.02739	0.0001	0.001
GW	211	5	0	0	0.0001	-0.01608	-0.03554	0.0001	0.001
GW	212	5	0	0	0.0001	0	-0.03875	0.0001	0.001
GW	213	5	0	0	0.0001	0.01608	-0.03554	0.0001	0.001
GW	214	5	0	0	0.0001	0.02739	-0.02739	0.0001	0.001
GW	215	5	0	0	0.0001	0.03554	-0.01608	0.0001	0.001
GW	216	5	0	0	0.0001	0.03875	0	0.0001	0.001
GW	217	5	0	0	0.0001	0.03554	0.01608	0.0001	0.001
GW	218	5	0	0	0.0001	0.02739	0.02739	0.0001	0.001
GW	219	5	0	0	0.0001	0.01608	0.03554	0.0001	0.001
GW	220	5	0	0	0.0001	0	0.03875	0.0001	0.001
GW	221	5	0	0	0.0001	-0.01608	0.03554	0.0001	0.001
GW	222	5	0	0	0.0001	-0.02739	0.02739	0.0001	0.001
GW	223	5	0	0	0.0001	-0.03554	0.01608	0.0001	0.001
GH	1	120	0.0313	0.525	0.0199	0.0199	0.0199	0.0199	0.00199
GM	0	0	0	0	0	0	0	0.004	0
GW	150	1	0.0199	0	0	0.0199	0	0.004	0.00199
GE	1
GN	1
EK
EX	0	150	1	0	1	0	0
FR	0	0	0	0	2400	0
EN
